<?xml version="1.0" ?>
<routes>
   <vehicle arrivallane="1" depart="0" departlane="1" departspeed="13.8776764598" id="0_00">
      <route edges="e0 e1 e2"/>
   </vehicle>
   <vehicle arrivallane="2" depart="3" departlane="0" departspeed="11.1052906198" id="0_01">
      <route edges="e0 e1 e2"/>
   </vehicle>
   <vehicle arrivallane="2" depart="4" departlane="0" departspeed="11.4165429167" id="0_02">
      <route edges="e0 e1 e2"/>
   </vehicle>
   <vehicle arrivallane="3" depart="5" departlane="1" departspeed="11.962401105" id="0_03">
      <route edges="e0 e1 e2"/>
   </vehicle>
   <vehicle arrivallane="2" depart="7" departlane="2" departspeed="12.9259168056" id="0_04">
      <route edges="e0 e1 e2"/>
   </vehicle>
   <vehicle arrivallane="1" depart="10" departlane="4" departspeed="12.5501587857" id="0_05">
      <route edges="e0 e1 e2"/>
   </vehicle>
   <vehicle arrivallane="1" depart="14" departlane="2" departspeed="11.5127685636" id="0_06">
      <route edges="e0 e1 e2"/>
   </vehicle>
   <vehicle arrivallane="4" depart="19" departlane="3" departspeed="13.0229708919" id="0_07">
      <route edges="e0 e1 e2"/>
   </vehicle>
   <vehicle arrivallane="2" depart="24" departlane="3" departspeed="13.7548617758" id="0_08">
      <route edges="e0 e1 e2"/>
   </vehicle>
   <vehicle arrivallane="1" depart="27" departlane="5" departspeed="10.7997549204" id="0_09">
      <route edges="e0 e1 e2"/>
   </vehicle>
   <vehicle arrivallane="0" depart="32" departlane="1" departspeed="10.3679789624" id="0_10">
      <route edges="e0 e1 e2"/>
   </vehicle>
   <vehicle arrivallane="5" depart="35" departlane="1" departspeed="10.2159693677" id="0_11">
      <route edges="e0 e1 e2"/>
   </vehicle>
   <vehicle arrivallane="5" depart="40" departlane="4" departspeed="11.5970820216" id="0_12">
      <route edges="e0 e1 e2"/>
   </vehicle>
   <vehicle arrivallane="1" depart="45" departlane="1" departspeed="12.8651093156" id="0_13">
      <route edges="e0 e1 e2"/>
   </vehicle>
   <vehicle arrivallane="0" depart="50" departlane="2" departspeed="13.6295548935" id="0_14">
      <route edges="e0 e1 e2"/>
   </vehicle>
   <vehicle arrivallane="3" depart="54" departlane="0" departspeed="11.6458138284" id="0_15">
      <route edges="e0 e1 e2"/>
   </vehicle>
   <vehicle arrivallane="2" depart="58" departlane="1" departspeed="11.7915161994" id="0_16">
      <route edges="e0 e1 e2"/>
   </vehicle>
   <vehicle arrivallane="0" depart="59" departlane="4" departspeed="10.9164064189" id="0_17">
      <route edges="e0 e1 e2"/>
   </vehicle>
   <vehicle arrivallane="1" depart="62" departlane="2" departspeed="12.1780761393" id="0_18">
      <route edges="e0 e1 e2"/>
   </vehicle>
   <vehicle arrivallane="0" depart="64" departlane="3" departspeed="13.2034166018" id="0_19">
      <route edges="e0 e1 e2"/>
   </vehicle>
   <vehicle arrivallane="0" depart="65" departlane="3" departspeed="10.6339527384" id="0_20">
      <route edges="e0 e1 e2"/>
   </vehicle>
   <vehicle arrivallane="4" depart="68" departlane="0" departspeed="12.0848857969" id="0_21">
      <route edges="e0 e1 e2"/>
   </vehicle>
   <vehicle arrivallane="0" depart="71" departlane="5" departspeed="13.0820863914" id="0_22">
      <route edges="e0 e1 e2"/>
   </vehicle>
   <vehicle arrivallane="3" depart="73" departlane="3" departspeed="13.1683389524" id="0_23">
      <route edges="e0 e1 e2"/>
   </vehicle>
   <vehicle arrivallane="1" depart="74" departlane="4" departspeed="13.1429071902" id="0_24">
      <route edges="e0 e1 e2"/>
   </vehicle>
   <vehicle arrivallane="0" depart="79" departlane="3" departspeed="13.2939858511" id="0_25">
      <route edges="e0 e1 e2"/>
   </vehicle>
   <vehicle arrivallane="2" depart="83" departlane="4" departspeed="12.1414269993" id="0_26">
      <route edges="e0 e1 e2"/>
   </vehicle>
   <vehicle arrivallane="5" depart="88" departlane="2" departspeed="13.3788723314" id="0_27">
      <route edges="e0 e1 e2"/>
   </vehicle>
   <vehicle arrivallane="2" depart="89" departlane="2" departspeed="10.8903281885" id="0_28">
      <route edges="e0 e1 e2"/>
   </vehicle>
   <vehicle arrivallane="5" depart="93" departlane="0" departspeed="10.758345686" id="0_29">
      <route edges="e0 e1 e2"/>
   </vehicle>
   <vehicle arrivallane="0" depart="98" departlane="4" departspeed="12.4542779257" id="0_30">
      <route edges="e0 e1 e2"/>
   </vehicle>
   <vehicle arrivallane="5" depart="100" departlane="3" departspeed="11.9186699631" id="0_31">
      <route edges="e0 e1 e2"/>
   </vehicle>
   <vehicle arrivallane="3" depart="102" departlane="5" departspeed="13.6449488706" id="0_32">
      <route edges="e0 e1 e2"/>
   </vehicle>
   <vehicle arrivallane="0" depart="107" departlane="1" departspeed="12.1626776486" id="0_33">
      <route edges="e0 e1 e2"/>
   </vehicle>
   <vehicle arrivallane="1" depart="112" departlane="1" departspeed="13.7797097286" id="0_34">
      <route edges="e0 e1 e2"/>
   </vehicle>
   <vehicle arrivallane="0" depart="115" departlane="5" departspeed="11.5166560996" id="0_35">
      <route edges="e0 e1 e2"/>
   </vehicle>
   <vehicle arrivallane="5" depart="119" departlane="0" departspeed="10.6354942937" id="0_36">
      <route edges="e0 e1 e2"/>
   </vehicle>
   <vehicle arrivallane="0" depart="120" departlane="5" departspeed="13.8961784258" id="0_37">
      <route edges="e0 e1 e2"/>
   </vehicle>
   <vehicle arrivallane="5" depart="123" departlane="3" departspeed="11.3303378167" id="0_38">
      <route edges="e0 e1 e2"/>
   </vehicle>
   <vehicle arrivallane="0" depart="126" departlane="3" departspeed="12.6178868518" id="0_39">
      <route edges="e0 e1 e2"/>
   </vehicle>
   <vehicle arrivallane="1" depart="127" departlane="4" departspeed="12.6735379942" id="0_40">
      <route edges="e0 e1 e2"/>
   </vehicle>
   <vehicle arrivallane="5" depart="131" departlane="5" departspeed="11.9334387214" id="0_41">
      <route edges="e0 e1 e2"/>
   </vehicle>
   <vehicle arrivallane="1" depart="133" departlane="5" departspeed="10.2228674366" id="0_42">
      <route edges="e0 e1 e2"/>
   </vehicle>
   <vehicle arrivallane="2" depart="138" departlane="5" departspeed="11.5740840743" id="0_43">
      <route edges="e0 e1 e2"/>
   </vehicle>
   <vehicle arrivallane="3" depart="141" departlane="3" departspeed="13.0895075241" id="0_44">
      <route edges="e0 e1 e2"/>
   </vehicle>
   <vehicle arrivallane="0" depart="143" departlane="2" departspeed="10.6835219707" id="0_45">
      <route edges="e0 e1 e2"/>
   </vehicle>
   <vehicle arrivallane="1" depart="146" departlane="0" departspeed="13.1289897425" id="0_46">
      <route edges="e0 e1 e2"/>
   </vehicle>
   <vehicle arrivallane="3" depart="151" departlane="5" departspeed="12.6068276675" id="0_47">
      <route edges="e0 e1 e2"/>
   </vehicle>
   <vehicle arrivallane="4" depart="152" departlane="3" departspeed="10.8335076973" id="0_48">
      <route edges="e0 e1 e2"/>
   </vehicle>
   <vehicle arrivallane="1" depart="156" departlane="4" departspeed="10.687201355" id="0_49">
      <route edges="e0 e1 e2"/>
   </vehicle>
   <vehicle arrivallane="3" depart="158" departlane="4" departspeed="12.1820628363" id="0_50">
      <route edges="e0 e1 e2"/>
   </vehicle>
   <vehicle arrivallane="5" depart="161" departlane="2" departspeed="10.7645078797" id="0_51">
      <route edges="e0 e1 e2"/>
   </vehicle>
   <vehicle arrivallane="1" depart="164" departlane="2" departspeed="10.2134962307" id="0_52">
      <route edges="e0 e1 e2"/>
   </vehicle>
   <vehicle arrivallane="1" depart="166" departlane="3" departspeed="13.9391853234" id="0_53">
      <route edges="e0 e1 e2"/>
   </vehicle>
   <vehicle arrivallane="1" depart="169" departlane="0" departspeed="12.1464348965" id="0_54">
      <route edges="e0 e1 e2"/>
   </vehicle>
   <vehicle arrivallane="2" depart="170" departlane="4" departspeed="12.2452470157" id="0_55">
      <route edges="e0 e1 e2"/>
   </vehicle>
   <vehicle arrivallane="1" depart="172" departlane="1" departspeed="13.0974613568" id="0_56">
      <route edges="e0 e1 e2"/>
   </vehicle>
   <vehicle arrivallane="0" depart="175" departlane="1" departspeed="10.177409611" id="0_57">
      <route edges="e0 e1 e2"/>
   </vehicle>
   <vehicle arrivallane="4" depart="176" departlane="1" departspeed="10.9465788609" id="0_58">
      <route edges="e0 e1 e2"/>
   </vehicle>
   <vehicle arrivallane="3" depart="178" departlane="5" departspeed="11.1428020467" id="0_59">
      <route edges="e0 e1 e2"/>
   </vehicle>
   <vehicle arrivallane="1" depart="181" departlane="3" departspeed="10.0630523483" id="0_60">
      <route edges="e0 e1 e2"/>
   </vehicle>
   <vehicle arrivallane="0" depart="184" departlane="3" departspeed="11.7177936218" id="0_61">
      <route edges="e0 e1 e2"/>
   </vehicle>
   <vehicle arrivallane="3" depart="188" departlane="0" departspeed="12.7715941308" id="0_62">
      <route edges="e0 e1 e2"/>
   </vehicle>
   <vehicle arrivallane="5" depart="189" departlane="5" departspeed="10.3187047698" id="0_63">
      <route edges="e0 e1 e2"/>
   </vehicle>
   <vehicle arrivallane="4" depart="191" departlane="2" departspeed="12.7640757556" id="0_64">
      <route edges="e0 e1 e2"/>
   </vehicle>
   <vehicle arrivallane="4" depart="192" departlane="5" departspeed="13.0453005628" id="0_65">
      <route edges="e0 e1 e2"/>
   </vehicle>
   <vehicle arrivallane="1" depart="193" departlane="0" departspeed="12.1494694539" id="0_66">
      <route edges="e0 e1 e2"/>
   </vehicle>
   <vehicle arrivallane="2" depart="195" departlane="3" departspeed="13.6092183821" id="0_67">
      <route edges="e0 e1 e2"/>
   </vehicle>
   <vehicle arrivallane="1" depart="197" departlane="1" departspeed="13.0916997974" id="0_68">
      <route edges="e0 e1 e2"/>
   </vehicle>
   <vehicle arrivallane="4" depart="199" departlane="4" departspeed="13.3323754514" id="0_69">
      <route edges="e0 e1 e2"/>
   </vehicle>
   <vehicle arrivallane="5" depart="203" departlane="4" departspeed="11.5774728016" id="0_70">
      <route edges="e0 e1 e2"/>
   </vehicle>
   <vehicle arrivallane="2" depart="205" departlane="4" departspeed="10.2179181543" id="0_71">
      <route edges="e0 e1 e2"/>
   </vehicle>
   <vehicle arrivallane="1" depart="209" departlane="1" departspeed="10.5340534288" id="0_72">
      <route edges="e0 e1 e2"/>
   </vehicle>
   <vehicle arrivallane="3" depart="214" departlane="3" departspeed="10.4399139781" id="0_73">
      <route edges="e0 e1 e2"/>
   </vehicle>
   <vehicle arrivallane="1" depart="217" departlane="0" departspeed="11.174161499" id="0_74">
      <route edges="e0 e1 e2"/>
   </vehicle>
   <vehicle arrivallane="0" depart="220" departlane="1" departspeed="11.2210992857" id="0_75">
      <route edges="e0 e1 e2"/>
   </vehicle>
   <vehicle arrivallane="0" depart="223" departlane="0" departspeed="12.7550954035" id="0_76">
      <route edges="e0 e1 e2"/>
   </vehicle>
   <vehicle arrivallane="3" depart="224" departlane="5" departspeed="10.4124576129" id="0_77">
      <route edges="e0 e1 e2"/>
   </vehicle>
   <vehicle arrivallane="0" depart="228" departlane="2" departspeed="10.1251317188" id="0_78">
      <route edges="e0 e1 e2"/>
   </vehicle>
   <vehicle arrivallane="5" depart="233" departlane="5" departspeed="13.9526494847" id="0_79">
      <route edges="e0 e1 e2"/>
   </vehicle>
   <vehicle arrivallane="0" depart="237" departlane="1" departspeed="13.2515222364" id="0_80">
      <route edges="e0 e1 e2"/>
   </vehicle>
   <vehicle arrivallane="0" depart="242" departlane="3" departspeed="12.2300362684" id="0_81">
      <route edges="e0 e1 e2"/>
   </vehicle>
   <vehicle arrivallane="2" depart="247" departlane="4" departspeed="11.1676590888" id="0_82">
      <route edges="e0 e1 e2"/>
   </vehicle>
   <vehicle arrivallane="3" depart="248" departlane="2" departspeed="13.9004624462" id="0_83">
      <route edges="e0 e1 e2"/>
   </vehicle>
   <vehicle arrivallane="2" depart="251" departlane="2" departspeed="10.6701500616" id="0_84">
      <route edges="e0 e1 e2"/>
   </vehicle>
   <vehicle arrivallane="5" depart="252" departlane="0" departspeed="11.1124086161" id="0_85">
      <route edges="e0 e1 e2"/>
   </vehicle>
   <vehicle arrivallane="5" depart="255" departlane="4" departspeed="11.6343847132" id="0_86">
      <route edges="e0 e1 e2"/>
   </vehicle>
   <vehicle arrivallane="3" depart="260" departlane="0" departspeed="13.4543737959" id="0_87">
      <route edges="e0 e1 e2"/>
   </vehicle>
   <vehicle arrivallane="3" depart="262" departlane="0" departspeed="12.8888069997" id="0_88">
      <route edges="e0 e1 e2"/>
   </vehicle>
   <vehicle arrivallane="5" depart="264" departlane="1" departspeed="11.2185011739" id="0_89">
      <route edges="e0 e1 e2"/>
   </vehicle>
   <vehicle arrivallane="4" depart="267" departlane="5" departspeed="13.5875770284" id="0_90">
      <route edges="e0 e1 e2"/>
   </vehicle>
   <vehicle arrivallane="0" depart="272" departlane="3" departspeed="12.1567976132" id="0_91">
      <route edges="e0 e1 e2"/>
   </vehicle>
   <vehicle arrivallane="4" depart="274" departlane="5" departspeed="13.7193995519" id="0_92">
      <route edges="e0 e1 e2"/>
   </vehicle>
   <vehicle arrivallane="4" depart="277" departlane="0" departspeed="12.6447625359" id="0_93">
      <route edges="e0 e1 e2"/>
   </vehicle>
   <vehicle arrivallane="1" depart="278" departlane="1" departspeed="12.2181543589" id="0_94">
      <route edges="e0 e1 e2"/>
   </vehicle>
   <vehicle arrivallane="1" depart="282" departlane="1" departspeed="12.3922791053" id="0_95">
      <route edges="e0 e1 e2"/>
   </vehicle>
   <vehicle arrivallane="2" depart="283" departlane="2" departspeed="11.2588518577" id="0_96">
      <route edges="e0 e1 e2"/>
   </vehicle>
   <vehicle arrivallane="0" depart="284" departlane="2" departspeed="12.2208251588" id="0_97">
      <route edges="e0 e1 e2"/>
   </vehicle>
   <vehicle arrivallane="1" depart="287" departlane="3" departspeed="11.3174299538" id="0_98">
      <route edges="e0 e1 e2"/>
   </vehicle>
   <vehicle arrivallane="0" depart="288" departlane="1" departspeed="10.8127316154" id="0_99">
      <route edges="e0 e1 e2"/>
   </vehicle>
   <vehicle arrivallane="3" depart="289" departlane="5" departspeed="13.7624130714" id="0_100">
      <route edges="e0 e1 e2"/>
   </vehicle>
   <vehicle arrivallane="1" depart="290" departlane="1" departspeed="13.7200796835" id="0_101">
      <route edges="e0 e1 e2"/>
   </vehicle>
   <vehicle arrivallane="1" depart="291" departlane="5" departspeed="12.6389923966" id="0_102">
      <route edges="e0 e1 e2"/>
   </vehicle>
   <vehicle arrivallane="4" depart="294" departlane="0" departspeed="13.8883194661" id="0_103">
      <route edges="e0 e1 e2"/>
   </vehicle>
   <vehicle arrivallane="3" depart="299" departlane="5" departspeed="11.6338724251" id="0_104">
      <route edges="e0 e1 e2"/>
   </vehicle>
   <vehicle arrivallane="3" depart="302" departlane="0" departspeed="13.0570408804" id="0_105">
      <route edges="e0 e1 e2"/>
   </vehicle>
   <vehicle arrivallane="2" depart="304" departlane="2" departspeed="11.0151931408" id="0_106">
      <route edges="e0 e1 e2"/>
   </vehicle>
   <vehicle arrivallane="1" depart="309" departlane="5" departspeed="11.6363917033" id="0_107">
      <route edges="e0 e1 e2"/>
   </vehicle>
   <vehicle arrivallane="4" depart="310" departlane="5" departspeed="13.2450176884" id="0_108">
      <route edges="e0 e1 e2"/>
   </vehicle>
   <vehicle arrivallane="5" depart="314" departlane="1" departspeed="13.1277255527" id="0_109">
      <route edges="e0 e1 e2"/>
   </vehicle>
   <vehicle arrivallane="0" depart="318" departlane="5" departspeed="12.718982508" id="0_110">
      <route edges="e0 e1 e2"/>
   </vehicle>
   <vehicle arrivallane="1" depart="322" departlane="1" departspeed="10.8112769843" id="0_111">
      <route edges="e0 e1 e2"/>
   </vehicle>
   <vehicle arrivallane="1" depart="323" departlane="1" departspeed="13.7690837771" id="0_112">
      <route edges="e0 e1 e2"/>
   </vehicle>
   <vehicle arrivallane="3" depart="324" departlane="5" departspeed="13.9485063734" id="0_113">
      <route edges="e0 e1 e2"/>
   </vehicle>
   <vehicle arrivallane="5" depart="326" departlane="2" departspeed="13.41616922" id="0_114">
      <route edges="e0 e1 e2"/>
   </vehicle>
   <vehicle arrivallane="5" depart="328" departlane="2" departspeed="10.2524335361" id="0_115">
      <route edges="e0 e1 e2"/>
   </vehicle>
   <vehicle arrivallane="4" depart="329" departlane="5" departspeed="11.8638382519" id="0_116">
      <route edges="e0 e1 e2"/>
   </vehicle>
   <vehicle arrivallane="5" depart="332" departlane="4" departspeed="12.9299546534" id="0_117">
      <route edges="e0 e1 e2"/>
   </vehicle>
   <vehicle arrivallane="1" depart="335" departlane="2" departspeed="12.65936099" id="0_118">
      <route edges="e0 e1 e2"/>
   </vehicle>
   <vehicle arrivallane="4" depart="338" departlane="4" departspeed="10.7429280668" id="0_119">
      <route edges="e0 e1 e2"/>
   </vehicle>
   <vehicle arrivallane="1" depart="340" departlane="5" departspeed="10.8259604409" id="0_120">
      <route edges="e0 e1 e2"/>
   </vehicle>
   <vehicle arrivallane="2" depart="344" departlane="1" departspeed="11.4977292187" id="0_121">
      <route edges="e0 e1 e2"/>
   </vehicle>
   <vehicle arrivallane="0" depart="345" departlane="1" departspeed="10.6616519654" id="0_122">
      <route edges="e0 e1 e2"/>
   </vehicle>
   <vehicle arrivallane="5" depart="347" departlane="1" departspeed="13.501994859" id="0_123">
      <route edges="e0 e1 e2"/>
   </vehicle>
   <vehicle arrivallane="3" depart="352" departlane="2" departspeed="10.1816245253" id="0_124">
      <route edges="e0 e1 e2"/>
   </vehicle>
   <vehicle arrivallane="0" depart="357" departlane="5" departspeed="12.8892064986" id="0_125">
      <route edges="e0 e1 e2"/>
   </vehicle>
   <vehicle arrivallane="3" depart="361" departlane="5" departspeed="13.7648872755" id="0_126">
      <route edges="e0 e1 e2"/>
   </vehicle>
   <vehicle arrivallane="5" depart="365" departlane="5" departspeed="11.5090373606" id="0_127">
      <route edges="e0 e1 e2"/>
   </vehicle>
   <vehicle arrivallane="5" depart="370" departlane="5" departspeed="13.7112474438" id="0_128">
      <route edges="e0 e1 e2"/>
   </vehicle>
   <vehicle arrivallane="1" depart="375" departlane="4" departspeed="11.2922441675" id="0_129">
      <route edges="e0 e1 e2"/>
   </vehicle>
   <vehicle arrivallane="2" depart="380" departlane="0" departspeed="13.1357419616" id="0_130">
      <route edges="e0 e1 e2"/>
   </vehicle>
   <vehicle arrivallane="5" depart="381" departlane="1" departspeed="10.2418332851" id="0_131">
      <route edges="e0 e1 e2"/>
   </vehicle>
   <vehicle arrivallane="1" depart="383" departlane="5" departspeed="13.3762732647" id="0_132">
      <route edges="e0 e1 e2"/>
   </vehicle>
   <vehicle arrivallane="5" depart="388" departlane="0" departspeed="13.4313966393" id="0_133">
      <route edges="e0 e1 e2"/>
   </vehicle>
   <vehicle arrivallane="0" depart="389" departlane="0" departspeed="10.5373014001" id="0_134">
      <route edges="e0 e1 e2"/>
   </vehicle>
   <vehicle arrivallane="5" depart="390" departlane="1" departspeed="10.8846089752" id="0_135">
      <route edges="e0 e1 e2"/>
   </vehicle>
   <vehicle arrivallane="5" depart="394" departlane="3" departspeed="12.0441710515" id="0_136">
      <route edges="e0 e1 e2"/>
   </vehicle>
   <vehicle arrivallane="2" depart="395" departlane="1" departspeed="10.4331517841" id="0_137">
      <route edges="e0 e1 e2"/>
   </vehicle>
   <vehicle arrivallane="0" depart="397" departlane="0" departspeed="13.2666904538" id="0_138">
      <route edges="e0 e1 e2"/>
   </vehicle>
   <vehicle arrivallane="3" depart="398" departlane="5" departspeed="11.56747552" id="0_139">
      <route edges="e0 e1 e2"/>
   </vehicle>
   <vehicle arrivallane="5" depart="401" departlane="1" departspeed="11.438259602" id="0_140">
      <route edges="e0 e1 e2"/>
   </vehicle>
   <vehicle arrivallane="4" depart="403" departlane="4" departspeed="11.3390548687" id="0_141">
      <route edges="e0 e1 e2"/>
   </vehicle>
   <vehicle arrivallane="2" depart="407" departlane="2" departspeed="12.3932153496" id="0_142">
      <route edges="e0 e1 e2"/>
   </vehicle>
   <vehicle arrivallane="1" depart="411" departlane="0" departspeed="12.5165670292" id="0_143">
      <route edges="e0 e1 e2"/>
   </vehicle>
   <vehicle arrivallane="1" depart="412" departlane="1" departspeed="11.1265750615" id="0_144">
      <route edges="e0 e1 e2"/>
   </vehicle>
   <vehicle arrivallane="1" depart="417" departlane="5" departspeed="13.4276441639" id="0_145">
      <route edges="e0 e1 e2"/>
   </vehicle>
   <vehicle arrivallane="0" depart="421" departlane="5" departspeed="10.3922865131" id="0_146">
      <route edges="e0 e1 e2"/>
   </vehicle>
   <vehicle arrivallane="2" depart="422" departlane="5" departspeed="12.4116374525" id="0_147">
      <route edges="e0 e1 e2"/>
   </vehicle>
   <vehicle arrivallane="4" depart="425" departlane="3" departspeed="13.0569305385" id="0_148">
      <route edges="e0 e1 e2"/>
   </vehicle>
   <vehicle arrivallane="5" depart="430" departlane="4" departspeed="11.2048468975" id="0_149">
      <route edges="e0 e1 e2"/>
   </vehicle>
   <vehicle arrivallane="2" depart="432" departlane="2" departspeed="10.332223692" id="0_150">
      <route edges="e0 e1 e2"/>
   </vehicle>
   <vehicle arrivallane="4" depart="434" departlane="1" departspeed="13.4012928896" id="0_151">
      <route edges="e0 e1 e2"/>
   </vehicle>
   <vehicle arrivallane="0" depart="435" departlane="0" departspeed="13.4076641506" id="0_152">
      <route edges="e0 e1 e2"/>
   </vehicle>
   <vehicle arrivallane="5" depart="436" departlane="3" departspeed="10.6867700983" id="0_153">
      <route edges="e0 e1 e2"/>
   </vehicle>
   <vehicle arrivallane="1" depart="439" departlane="1" departspeed="11.0362081182" id="0_154">
      <route edges="e0 e1 e2"/>
   </vehicle>
   <vehicle arrivallane="2" depart="442" departlane="4" departspeed="13.5434297002" id="0_155">
      <route edges="e0 e1 e2"/>
   </vehicle>
   <vehicle arrivallane="0" depart="443" departlane="2" departspeed="10.6300109599" id="0_156">
      <route edges="e0 e1 e2"/>
   </vehicle>
   <vehicle arrivallane="5" depart="447" departlane="2" departspeed="10.7923622071" id="0_157">
      <route edges="e0 e1 e2"/>
   </vehicle>
   <vehicle arrivallane="5" depart="451" departlane="5" departspeed="12.4628408263" id="0_158">
      <route edges="e0 e1 e2"/>
   </vehicle>
   <vehicle arrivallane="0" depart="455" departlane="4" departspeed="12.9234310066" id="0_159">
      <route edges="e0 e1 e2"/>
   </vehicle>
   <vehicle arrivallane="0" depart="456" departlane="3" departspeed="13.2782236505" id="0_160">
      <route edges="e0 e1 e2"/>
   </vehicle>
   <vehicle arrivallane="1" depart="458" departlane="3" departspeed="12.6514904257" id="0_161">
      <route edges="e0 e1 e2"/>
   </vehicle>
   <vehicle arrivallane="4" depart="462" departlane="1" departspeed="13.02917726" id="0_162">
      <route edges="e0 e1 e2"/>
   </vehicle>
   <vehicle arrivallane="3" depart="464" departlane="1" departspeed="11.2942286459" id="0_163">
      <route edges="e0 e1 e2"/>
   </vehicle>
   <vehicle arrivallane="3" depart="467" departlane="5" departspeed="13.2271467333" id="0_164">
      <route edges="e0 e1 e2"/>
   </vehicle>
   <vehicle arrivallane="2" depart="470" departlane="2" departspeed="10.6711424425" id="0_165">
      <route edges="e0 e1 e2"/>
   </vehicle>
   <vehicle arrivallane="5" depart="473" departlane="1" departspeed="13.7057884485" id="0_166">
      <route edges="e0 e1 e2"/>
   </vehicle>
   <vehicle arrivallane="1" depart="474" departlane="4" departspeed="13.7268255106" id="0_167">
      <route edges="e0 e1 e2"/>
   </vehicle>
   <vehicle arrivallane="5" depart="479" departlane="2" departspeed="11.1414346227" id="0_168">
      <route edges="e0 e1 e2"/>
   </vehicle>
   <vehicle arrivallane="4" depart="483" departlane="4" departspeed="13.9750591944" id="0_169">
      <route edges="e0 e1 e2"/>
   </vehicle>
   <vehicle arrivallane="3" depart="487" departlane="3" departspeed="10.0142385721" id="0_170">
      <route edges="e0 e1 e2"/>
   </vehicle>
   <vehicle arrivallane="1" depart="490" departlane="3" departspeed="11.9553274206" id="0_171">
      <route edges="e0 e1 e2"/>
   </vehicle>
   <vehicle arrivallane="1" depart="494" departlane="1" departspeed="10.5541154058" id="0_172">
      <route edges="e0 e1 e2"/>
   </vehicle>
   <vehicle arrivallane="1" depart="498" departlane="2" departspeed="10.6763794372" id="0_173">
      <route edges="e0 e1 e2"/>
   </vehicle>
   <vehicle arrivallane="1" depart="502" departlane="4" departspeed="10.315328162" id="0_174">
      <route edges="e0 e1 e2"/>
   </vehicle>
   <vehicle arrivallane="1" depart="507" departlane="1" departspeed="12.6140661384" id="0_175">
      <route edges="e0 e1 e2"/>
   </vehicle>
   <vehicle arrivallane="1" depart="510" departlane="4" departspeed="10.2921066625" id="0_176">
      <route edges="e0 e1 e2"/>
   </vehicle>
   <vehicle arrivallane="2" depart="515" departlane="4" departspeed="11.2474771097" id="0_177">
      <route edges="e0 e1 e2"/>
   </vehicle>
   <vehicle arrivallane="0" depart="517" departlane="3" departspeed="12.3591374806" id="0_178">
      <route edges="e0 e1 e2"/>
   </vehicle>
   <vehicle arrivallane="0" depart="519" departlane="2" departspeed="11.6672540834" id="0_179">
      <route edges="e0 e1 e2"/>
   </vehicle>
   <vehicle arrivallane="4" depart="523" departlane="0" departspeed="13.6606979083" id="0_180">
      <route edges="e0 e1 e2"/>
   </vehicle>
   <vehicle arrivallane="2" depart="528" departlane="4" departspeed="13.1512131428" id="0_181">
      <route edges="e0 e1 e2"/>
   </vehicle>
   <vehicle arrivallane="3" depart="529" departlane="4" departspeed="10.7926889354" id="0_182">
      <route edges="e0 e1 e2"/>
   </vehicle>
   <vehicle arrivallane="5" depart="532" departlane="3" departspeed="11.9031476708" id="0_183">
      <route edges="e0 e1 e2"/>
   </vehicle>
   <vehicle arrivallane="0" depart="533" departlane="1" departspeed="12.8703268797" id="0_184">
      <route edges="e0 e1 e2"/>
   </vehicle>
   <vehicle arrivallane="5" depart="534" departlane="3" departspeed="12.9082709178" id="0_185">
      <route edges="e0 e1 e2"/>
   </vehicle>
   <vehicle arrivallane="0" depart="538" departlane="1" departspeed="10.22794438" id="0_186">
      <route edges="e0 e1 e2"/>
   </vehicle>
   <vehicle arrivallane="1" depart="542" departlane="4" departspeed="11.6415297649" id="0_187">
      <route edges="e0 e1 e2"/>
   </vehicle>
   <vehicle arrivallane="1" depart="545" departlane="5" departspeed="11.2503228386" id="0_188">
      <route edges="e0 e1 e2"/>
   </vehicle>
   <vehicle arrivallane="5" depart="546" departlane="4" departspeed="11.7603936239" id="0_189">
      <route edges="e0 e1 e2"/>
   </vehicle>
   <vehicle arrivallane="0" depart="550" departlane="0" departspeed="11.9281830981" id="0_190">
      <route edges="e0 e1 e2"/>
   </vehicle>
   <vehicle arrivallane="5" depart="555" departlane="5" departspeed="12.2677462591" id="0_191">
      <route edges="e0 e1 e2"/>
   </vehicle>
   <vehicle arrivallane="4" depart="557" departlane="1" departspeed="10.425989327" id="0_192">
      <route edges="e0 e1 e2"/>
   </vehicle>
   <vehicle arrivallane="3" depart="558" departlane="1" departspeed="11.7219117658" id="0_193">
      <route edges="e0 e1 e2"/>
   </vehicle>
   <vehicle arrivallane="4" depart="563" departlane="1" departspeed="13.7129790296" id="0_194">
      <route edges="e0 e1 e2"/>
   </vehicle>
   <vehicle arrivallane="0" depart="564" departlane="4" departspeed="13.6129552737" id="0_195">
      <route edges="e0 e1 e2"/>
   </vehicle>
   <vehicle arrivallane="4" depart="565" departlane="1" departspeed="11.160516108" id="0_196">
      <route edges="e0 e1 e2"/>
   </vehicle>
   <vehicle arrivallane="4" depart="569" departlane="4" departspeed="13.0581138662" id="0_197">
      <route edges="e0 e1 e2"/>
   </vehicle>
   <vehicle arrivallane="3" depart="571" departlane="5" departspeed="13.3485381229" id="0_198">
      <route edges="e0 e1 e2"/>
   </vehicle>
   <vehicle arrivallane="3" depart="576" departlane="3" departspeed="13.0224767132" id="0_199">
      <route edges="e0 e1 e2"/>
   </vehicle>
   <vehicle arrivallane="3" depart="580" departlane="3" departspeed="12.6749919143" id="0_200">
      <route edges="e0 e1 e2"/>
   </vehicle>
   <vehicle arrivallane="2" depart="581" departlane="0" departspeed="12.0317027073" id="0_201">
      <route edges="e0 e1 e2"/>
   </vehicle>
   <vehicle arrivallane="2" depart="584" departlane="3" departspeed="10.5520909024" id="0_202">
      <route edges="e0 e1 e2"/>
   </vehicle>
   <vehicle arrivallane="3" depart="586" departlane="0" departspeed="10.8613897441" id="0_203">
      <route edges="e0 e1 e2"/>
   </vehicle>
   <vehicle arrivallane="2" depart="591" departlane="2" departspeed="12.9761552908" id="0_204">
      <route edges="e0 e1 e2"/>
   </vehicle>
   <vehicle arrivallane="5" depart="596" departlane="3" departspeed="13.5953979634" id="0_205">
      <route edges="e0 e1 e2"/>
   </vehicle>
   <vehicle arrivallane="0" depart="597" departlane="2" departspeed="11.894921675" id="0_206">
      <route edges="e0 e1 e2"/>
   </vehicle>
   <vehicle arrivallane="0" depart="599" departlane="4" departspeed="13.0732443264" id="0_207">
      <route edges="e0 e1 e2"/>
   </vehicle>
   <vehicle arrivallane="5" depart="602" departlane="4" departspeed="13.2022935409" id="0_208">
      <route edges="e0 e1 e2"/>
   </vehicle>
   <vehicle arrivallane="3" depart="607" departlane="1" departspeed="13.0702657944" id="0_209">
      <route edges="e0 e1 e2"/>
   </vehicle>
   <vehicle arrivallane="0" depart="610" departlane="1" departspeed="12.269344552" id="0_210">
      <route edges="e0 e1 e2"/>
   </vehicle>
   <vehicle arrivallane="0" depart="614" departlane="1" departspeed="12.3187004358" id="0_211">
      <route edges="e0 e1 e2"/>
   </vehicle>